Version 4
SHEET 1 880 680
WIRE 256 208 256 176
WIRE 256 240 256 224
WIRE 128 256 64 256
WIRE 192 256 128 256
WIRE -64 288 -64 176
WIRE 64 288 64 256
WIRE 256 336 256 304
WIRE 256 352 256 336
WIRE -64 448 -64 368
WIRE 64 448 64 368
WIRE 256 448 256 432
FLAG -64 176 VDD
FLAG 256 336 VD
FLAG 128 256 VG
FLAG 256 448 0
FLAG 64 448 0
FLAG -64 448 0
FLAG 256 176 VDD
SYMBOL res 240 336 R0
SYMATTR InstName R1
SYMATTR Value 4.31K
SYMBOL voltage 64 272 R0
WINDOW 123 0 0 Left 0
WINDOW 39 0 0 Left 0
SYMATTR InstName V1
SYMATTR Value 3.66V
SYMBOL voltage -64 272 R0
WINDOW 123 0 0 Left 0
WINDOW 39 0 0 Left 0
SYMATTR InstName V2
SYMATTR Value 5V
SYMBOL ALD1102 192 208 R0
SYMATTR InstName M1
TEXT -72 520 Left 2 !.lib ECE354.lib
TEXT -72 544 Left 2 !.op
