Version 4
SHEET 1 1160 680
WIRE 176 -80 112 -80
WIRE 320 -80 240 -80
WIRE 112 16 112 -80
WIRE 176 16 112 16
WIRE 320 16 320 -80
WIRE 320 16 256 16
WIRE 224 112 224 96
WIRE 64 128 -32 128
WIRE 112 128 112 16
WIRE 112 128 64 128
WIRE 192 128 112 128
WIRE 880 128 880 96
WIRE -368 144 -368 128
WIRE 320 144 320 16
WIRE 320 144 256 144
WIRE 448 144 400 144
WIRE 656 144 576 144
WIRE 848 144 656 144
WIRE -32 160 -32 128
WIRE 64 160 64 128
WIRE 192 160 160 160
WIRE 656 176 656 144
WIRE 400 192 400 144
WIRE -368 240 -368 224
WIRE -368 240 -432 240
WIRE 224 240 224 176
WIRE -368 256 -368 240
WIRE -32 256 -32 224
WIRE 64 256 64 240
WIRE 64 256 -32 256
WIRE 112 256 64 256
WIRE 160 256 160 160
WIRE 160 256 112 256
WIRE 112 288 112 256
WIRE -368 352 -368 336
WIRE 880 352 880 320
FLAG 112 288 0
FLAG 1072 144 Out1
IOPIN 1072 144 Out
FLAG -368 128 3V
FLAG 224 96 3V
FLAG 880 96 3V
FLAG 880 352 0
FLAG 400 256 0
FLAG -368 352 -3V
FLAG 224 240 -3V
FLAG -432 240 0
SYMBOL voltage -368 128 R0
WINDOW 123 0 0 Left 0
WINDOW 39 0 0 Left 0
SYMATTR InstName V1
SYMATTR Value 3
SYMBOL res 272 0 R90
WINDOW 0 0 56 VBottom 2
WINDOW 3 32 56 VTop 2
SYMATTR InstName R1
SYMATTR Value 10Meg
SYMBOL cap 240 -96 R90
WINDOW 0 0 32 VBottom 2
WINDOW 3 32 32 VTop 2
SYMATTR InstName C1
SYMATTR Value 1p
SYMBOL cap -48 160 R0
SYMATTR InstName C2
SYMATTR Value 70p
SYMBOL current 64 160 R0
WINDOW 123 0 0 Left 0
WINDOW 39 0 0 Left 0
SYMATTR InstName I1
SYMATTR Value AC 1
SYMBOL Opamps\\AD8605 224 80 R0
SYMATTR InstName U1
SYMBOL voltage -368 240 R0
WINDOW 123 0 0 Left 0
WINDOW 39 0 0 Left 0
SYMATTR InstName V2
SYMATTR Value 3
TEXT -192 -8 Left 2 !.ac dec 100 1 1000000
TEXT 400 72 Left 2 ;ADG658 on-resistance
